<?xml version="1.0" encoding="UTF-8"?>

<!-- generated on 2024-05-26 12:16:00 by Eclipse SUMO netedit Version 1.20.0
<configuration xmlns:xsi="http://www.w3.org/2001/XMLSchema-instance" xsi:noNamespaceSchemaLocation="http://sumo.dlr.de/xsd/neteditConfiguration.xsd">

    <input>
        <sumo-net-file value="/Users/raffaele/Development/AutonomousVehicles/Cooperative-Autonomous-Vehicles/platoon_test/2way.net.xml"/>
    </input>

    <output>
        <output-file value="/Users/raffaele/Development/AutonomousVehicles/Cooperative-Autonomous-Vehicles/platoon_test/2way.net.xml"/>
    </output>

    <processing>
        <offset.disable-normalization value="true"/>
    </processing>

    <junctions>
        <no-turnarounds value="true"/>
    </junctions>

    <netedit>
        <new-network value="false"/>
    </netedit>

</configuration>
-->

<net version="1.20" junctionCornerDetail="5" limitTurnSpeed="5.50" xmlns:xsi="http://www.w3.org/2001/XMLSchema-instance" xsi:noNamespaceSchemaLocation="http://sumo.dlr.de/xsd/net_file.xsd">

    <location netOffset="0.00,0.00" convBoundary="0.00,-450.00,0.00,100.00" origBoundary="10000000000.00,10000000000.00,-10000000000.00,-10000000000.00" projParameter="!"/>

    <edge id=":J1_0" function="internal">
        <lane id=":J1_0_0" index="0" speed="13.89" length="0.10" shape="-4.80,50.00 -4.80,50.00"/>
        <lane id=":J1_0_1" index="1" speed="13.89" length="0.10" shape="-1.60,50.00 -1.60,50.00"/>
    </edge>

    <edge id="E0" from="J0" to="J1" priority="-1" length="50.00">
        <lane id="E0_0" index="0" speed="13.89" length="50.00" shape="-4.80,100.00 -4.80,50.00"/>
        <lane id="E0_1" index="1" speed="13.89" length="50.00" shape="-1.60,100.00 -1.60,50.00"/>
    </edge>
    <edge id="E1" from="J1" to="J2" priority="-1">
        <lane id="E1_0" index="0" speed="13.89" length="1000.00" shape="-4.80,50.00 -4.80,-950.00"/>
        <lane id="E1_1" index="1" speed="13.89" length="1000.00" shape="-1.60,50.00 -1.60,-950.00"/>
    </edge>

    <tlLogic id="J1" type="actuated" programID="0" offset="0">
        <param key="max-gap" value="5.0"/>
        <param key="detector-gap" value="2.0"/>
        <param key="show-detectors" value="true"/>
        <param key="freq" value="500"/>
        <param key="file" value="junction.xml"/>
        <phase duration="30"  state="rr"/>
        <phase duration="30" state="GG" minDur="30" maxDur="50"/>
        <phase duration="3"  state="yy"/>
    </tlLogic>

    <junction id="J0" type="dead_end" x="0.00" y="100.00" incLanes="" intLanes="" shape="0.00,100.00 -6.40,100.00"/>
    <junction id="J1" type="traffic_light" x="0.00" y="50.00" incLanes="E0_0 E0_1" intLanes=":J1_0_0 :J1_0_1" shape="-6.40,50.00 0.00,50.00 0.00,50.00" customShape="1">
        <request index="0" response="00" foes="00" cont="0"/>
        <request index="1" response="00" foes="00" cont="0"/>
    </junction>
    <junction id="J2" type="dead_end" x="0.00" y="-450.00" incLanes="E1_0 E1_1" intLanes="" shape="-6.40,-450.00 0.00,-450.00"/>

    <connection from="E0" to="E1" fromLane="0" toLane="0" via=":J1_0_0" tl="J1" linkIndex="0" dir="s" state="O"/>
    <connection from="E0" to="E1" fromLane="1" toLane="1" via=":J1_0_1" tl="J1" linkIndex="1" dir="s" state="O"/>

    <connection from=":J1_0" to="E1" fromLane="0" toLane="0" dir="s" state="M"/>
    <connection from=":J1_0" to="E1" fromLane="1" toLane="1" dir="s" state="M"/>

</net>
