<routes>
	<vType id="vtypeauto" accel="2.5" decel="8" sigma="0" length="4"
		minGap="2" maxSpeed="36" color="255,255,255" probability="1"
		carFollowModel="CC" tauEngine="0.5" omegaN="0.2" xi="1" c1="0.5"
		lanesCount="4" ccAccel="4" ploegKp="0.2" ploegKd="0.7"
		ploegH="0.5"/>

	<route id="route_0" edges="E0 E1"/>

	<flow id="flow0" begin="0" number="20" period="1" type="vtypeauto" route="route_0"> </flow>
</routes>