<edges>
    <edge from="N" id="NtoJ" to="J" numLanes="3" />
    <edge from="J" id="JtoN" to="N" numLanes="3" />
    <edge from="S" id="StoJ" to="J" numLanes="3" />
    <edge from="J" id="JtoS" to="S" numLanes="3" />
    <edge from="E" id="EtoJ" to="J" numLanes="3" />
    <edge from="J" id="JtoE" to="E" numLanes="3" />
    <edge from="W" id="WtoJ" to="J" numLanes="3" />
    <edge from="J" id="JtoW" to="W" numLanes="3" />
</edges>