<configuration>
    <input>
        <net-file value="4way.net.xml" />
        <route-files value="4way.rou.xml" />
        <gui-settings-file value="4way.settings.xml" />
    </input>
    <time>
        <begin value="0" />
        <end value="500" />
    </time>
</configuration>