<routes>
    <vType accel="1.0" decel="5.0" id="car" length="5.0" maxSpeed="100.0" sigma="0.0" />

    <route id="route0" edges="StoJ JtoN" />
    <route id="route1" edges="NtoJ JtoS" />
    <route id="route2" edges="EtoJ JtoW" />
    <route id="route3" edges="WtoJ JtoE" />

    <route id="route31" edges="WtoJ JtoN" />
    <route id="route21" edges="EtoJ JtoS" />

    <!--
    <vehicle depart="1" id="veh0" route="route0" type="car" />
    <vehicle depart="1" id="veh1" route="route1" type="car" />
    <vehicle depart="1" id="veh2" route="route21" type="car" />
    <vehicle depart="1" id="veh3" route="route31" type="car" />
    -->

    <flow id="flow0" color="0,0,1" begin="0" end="200" period="30" type="car" route="route0" />
    <flow id="flow1" color="0,1,0" begin="0" end="200" period="30" type="car" route="route1" />
    <flow id="flow2" color="0,1,1" begin="0" end="250" period="30" type="car" route="route21" />
    <flow id="flow3" color="1,0,0" begin="0" end="200" period="30" type="car" route="route31" />
</routes>