<?xml version="1.0" encoding="UTF-8"?>

<!-- generated on 2024-10-22 18:12:15 by Eclipse SUMO netedit Version 1.20.0
<configuration xmlns:xsi="http://www.w3.org/2001/XMLSchema-instance" xsi:noNamespaceSchemaLocation="http://sumo.dlr.de/xsd/neteditConfiguration.xsd">

    <input>
        <sumo-net-file value="/Users/raffaele/Development/AutonomousVehicles/Cooperative-Autonomous-Vehicles/sim_cfg_grid_3_lanes_2/grid.net.xml"/>
    </input>

    <output>
        <output-file value="/Users/raffaele/Development/AutonomousVehicles/Cooperative-Autonomous-Vehicles/sim_cfg_grid_3_lanes_2/grid.net.xml"/>
    </output>

    <processing>
        <geometry.min-radius.fix.railways value="false"/>
        <geometry.max-grade.fix value="false"/>
        <offset.disable-normalization value="true"/>
        <lefthand value="0"/>
    </processing>

    <junctions>
        <no-turnarounds value="true"/>
        <junctions.corner-detail value="5"/>
        <junctions.limit-turn-speed value="5.50"/>
        <rectangular-lane-cut value="0"/>
    </junctions>

    <pedestrian>
        <walkingareas value="0"/>
    </pedestrian>

</configuration>
-->

<net version="1.20" junctionCornerDetail="5" limitTurnSpeed="5.50" xmlns:xsi="http://www.w3.org/2001/XMLSchema-instance" xsi:noNamespaceSchemaLocation="http://sumo.dlr.de/xsd/net_file.xsd">

    <location netOffset="0.00,0.00" convBoundary="0.00,0.00,400.00,400.00" origBoundary="0.00,0.00,400.00,400.00" projParameter="!"/>

    <edge id=":A0_0" function="internal">
        <lane id=":A0_0_0" index="0" speed="11.12" length="28.38" shape="-8.00,9.60 -6.90,1.90 -3.60,-3.60 1.90,-6.90 9.60,-8.00"/>
        <lane id=":A0_0_1" index="1" speed="10.10" length="23.22" shape="-4.80,9.60 -3.90,3.30 -1.20,-1.20 3.30,-3.90 9.60,-4.80"/>
        <lane id=":A0_0_2" index="2" speed="8.96" length="18.06" shape="-1.60,9.60 -0.90,4.70 1.20,1.20 4.70,-0.90 9.60,-1.60"/>
    </edge>
    <edge id=":A0_3" function="internal">
        <lane id=":A0_3_0" index="0" speed="3.90" length="2.58" shape="9.60,8.00 8.90,8.10 8.40,8.40 8.10,8.90 8.00,9.60"/>
        <lane id=":A0_3_1" index="1" speed="6.08" length="7.74" shape="9.60,4.80 7.50,5.10 6.00,6.00 5.10,7.50 4.80,9.60"/>
        <lane id=":A0_3_2" index="2" speed="7.66" length="12.90" shape="9.60,1.60 6.10,2.10 3.60,3.60 2.10,6.10 1.60,9.60"/>
    </edge>
    <edge id=":A1_0" function="internal">
        <lane id=":A1_0_0" index="0" speed="13.89" length="27.20" shape="-8.00,113.60 -8.00,86.40"/>
        <lane id=":A1_0_1" index="1" speed="13.89" length="27.20" shape="-4.80,113.60 -4.80,86.40"/>
        <lane id=":A1_0_2" index="2" speed="13.89" length="27.20" shape="-1.60,113.60 -1.60,86.40"/>
    </edge>
    <edge id=":A1_3" function="internal">
        <lane id=":A1_3_0" index="0" speed="10.88" length="6.03" shape="-1.60,113.60 -0.89,107.62"/>
        <lane id=":A1_3_1" index="1" speed="10.36" length="5.01" shape="-1.60,113.60 -0.89,108.64"/>
    </edge>
    <edge id=":A1_5" function="internal">
        <lane id=":A1_5_0" index="0" speed="3.65" length="1.44" shape="-1.60,113.60 -0.80,112.40"/>
    </edge>
    <edge id=":A1_15" function="internal">
        <lane id=":A1_15_0" index="0" speed="10.88" length="21.12" shape="-0.89,107.62 -0.65,105.55 2.20,99.80 6.95,96.35 13.60,95.20"/>
    </edge>
    <edge id=":A1_16" function="internal">
        <lane id=":A1_16_0" index="0" speed="10.36" length="19.50" shape="-0.89,108.64 -0.65,106.95 2.20,102.20 6.95,99.35 13.60,98.40"/>
    </edge>
    <edge id=":A1_17" function="internal">
        <lane id=":A1_17_0" index="0" speed="3.65" length="3.23" shape="-0.80,112.40 0.00,112.00 0.80,112.40 1.60,113.60"/>
    </edge>
    <edge id=":A1_6" function="internal">
        <lane id=":A1_6_0" index="0" speed="6.51" length="9.03" shape="13.60,108.00 11.15,108.35 9.40,109.40 8.35,111.15 8.00,113.60"/>
    </edge>
    <edge id=":A1_7" function="internal">
        <lane id=":A1_7_0" index="0" speed="11.36" length="29.67" shape="13.60,104.80 5.55,103.65 -0.20,100.20 -3.65,94.45 -4.80,86.40"/>
        <lane id=":A1_7_1" index="1" speed="10.36" length="24.51" shape="13.60,101.60 6.95,100.65 2.20,97.80 -0.65,93.05 -1.60,86.40"/>
    </edge>
    <edge id=":A1_9" function="internal">
        <lane id=":A1_9_0" index="0" speed="3.65" length="4.67" shape="13.60,101.60 12.40,100.80 12.00,100.00 12.40,99.20 13.60,98.40"/>
    </edge>
    <edge id=":A1_10" function="internal">
        <lane id=":A1_10_0" index="0" speed="6.51" length="9.03" shape="8.00,86.40 8.35,88.85 9.40,90.60 11.15,91.65 13.60,92.00"/>
    </edge>
    <edge id=":A1_11" function="internal">
        <lane id=":A1_11_0" index="0" speed="13.89" length="27.20" shape="8.00,86.40 8.00,113.60"/>
        <lane id=":A1_11_1" index="1" speed="13.89" length="27.20" shape="4.80,86.40 4.80,113.60"/>
        <lane id=":A1_11_2" index="2" speed="13.89" length="27.20" shape="1.60,86.40 1.60,113.60"/>
    </edge>
    <edge id=":A1_14" function="internal">
        <lane id=":A1_14_0" index="0" speed="3.65" length="1.44" shape="1.60,86.40 0.80,87.60"/>
    </edge>
    <edge id=":A1_18" function="internal">
        <lane id=":A1_18_0" index="0" speed="3.65" length="3.23" shape="0.80,87.60 0.00,88.00 -0.80,87.60 -1.60,86.40"/>
    </edge>
    <edge id=":A2_0" function="internal">
        <lane id=":A2_0_0" index="0" speed="13.89" length="27.20" shape="-8.00,213.60 -8.00,186.40"/>
        <lane id=":A2_0_1" index="1" speed="13.89" length="27.20" shape="-4.80,213.60 -4.80,186.40"/>
        <lane id=":A2_0_2" index="2" speed="13.89" length="27.20" shape="-1.60,213.60 -1.60,186.40"/>
    </edge>
    <edge id=":A2_3" function="internal">
        <lane id=":A2_3_0" index="0" speed="10.88" length="6.03" shape="-1.60,213.60 -0.89,207.62"/>
        <lane id=":A2_3_1" index="1" speed="10.36" length="5.01" shape="-1.60,213.60 -0.89,208.64"/>
    </edge>
    <edge id=":A2_5" function="internal">
        <lane id=":A2_5_0" index="0" speed="3.65" length="1.44" shape="-1.60,213.60 -0.80,212.40"/>
    </edge>
    <edge id=":A2_15" function="internal">
        <lane id=":A2_15_0" index="0" speed="10.88" length="21.12" shape="-0.89,207.62 -0.65,205.55 2.20,199.80 6.95,196.35 13.60,195.20"/>
    </edge>
    <edge id=":A2_16" function="internal">
        <lane id=":A2_16_0" index="0" speed="10.36" length="19.50" shape="-0.89,208.64 -0.65,206.95 2.20,202.20 6.95,199.35 13.60,198.40"/>
    </edge>
    <edge id=":A2_17" function="internal">
        <lane id=":A2_17_0" index="0" speed="3.65" length="3.23" shape="-0.80,212.40 0.00,212.00 0.80,212.40 1.60,213.60"/>
    </edge>
    <edge id=":A2_6" function="internal">
        <lane id=":A2_6_0" index="0" speed="6.51" length="9.03" shape="13.60,208.00 11.15,208.35 9.40,209.40 8.35,211.15 8.00,213.60"/>
    </edge>
    <edge id=":A2_7" function="internal">
        <lane id=":A2_7_0" index="0" speed="11.36" length="29.67" shape="13.60,204.80 5.55,203.65 -0.20,200.20 -3.65,194.45 -4.80,186.40"/>
        <lane id=":A2_7_1" index="1" speed="10.36" length="24.51" shape="13.60,201.60 6.95,200.65 2.20,197.80 -0.65,193.05 -1.60,186.40"/>
    </edge>
    <edge id=":A2_9" function="internal">
        <lane id=":A2_9_0" index="0" speed="3.65" length="4.67" shape="13.60,201.60 12.40,200.80 12.00,200.00 12.40,199.20 13.60,198.40"/>
    </edge>
    <edge id=":A2_10" function="internal">
        <lane id=":A2_10_0" index="0" speed="6.51" length="9.03" shape="8.00,186.40 8.35,188.85 9.40,190.60 11.15,191.65 13.60,192.00"/>
    </edge>
    <edge id=":A2_11" function="internal">
        <lane id=":A2_11_0" index="0" speed="13.89" length="27.20" shape="8.00,186.40 8.00,213.60"/>
        <lane id=":A2_11_1" index="1" speed="13.89" length="27.20" shape="4.80,186.40 4.80,213.60"/>
        <lane id=":A2_11_2" index="2" speed="13.89" length="27.20" shape="1.60,186.40 1.60,213.60"/>
    </edge>
    <edge id=":A2_14" function="internal">
        <lane id=":A2_14_0" index="0" speed="3.65" length="1.44" shape="1.60,186.40 0.80,187.60"/>
    </edge>
    <edge id=":A2_18" function="internal">
        <lane id=":A2_18_0" index="0" speed="3.65" length="3.23" shape="0.80,187.60 0.00,188.00 -0.80,187.60 -1.60,186.40"/>
    </edge>
    <edge id=":A3_0" function="internal">
        <lane id=":A3_0_0" index="0" speed="13.89" length="27.20" shape="-8.00,313.60 -8.00,286.40"/>
        <lane id=":A3_0_1" index="1" speed="13.89" length="27.20" shape="-4.80,313.60 -4.80,286.40"/>
        <lane id=":A3_0_2" index="2" speed="13.89" length="27.20" shape="-1.60,313.60 -1.60,286.40"/>
    </edge>
    <edge id=":A3_3" function="internal">
        <lane id=":A3_3_0" index="0" speed="10.88" length="6.03" shape="-1.60,313.60 -0.89,307.62"/>
        <lane id=":A3_3_1" index="1" speed="10.36" length="5.01" shape="-1.60,313.60 -0.89,308.64"/>
    </edge>
    <edge id=":A3_5" function="internal">
        <lane id=":A3_5_0" index="0" speed="3.65" length="1.44" shape="-1.60,313.60 -0.80,312.40"/>
    </edge>
    <edge id=":A3_15" function="internal">
        <lane id=":A3_15_0" index="0" speed="10.88" length="21.12" shape="-0.89,307.62 -0.65,305.55 2.20,299.80 6.95,296.35 13.60,295.20"/>
    </edge>
    <edge id=":A3_16" function="internal">
        <lane id=":A3_16_0" index="0" speed="10.36" length="19.50" shape="-0.89,308.64 -0.65,306.95 2.20,302.20 6.95,299.35 13.60,298.40"/>
    </edge>
    <edge id=":A3_17" function="internal">
        <lane id=":A3_17_0" index="0" speed="3.65" length="3.23" shape="-0.80,312.40 0.00,312.00 0.80,312.40 1.60,313.60"/>
    </edge>
    <edge id=":A3_6" function="internal">
        <lane id=":A3_6_0" index="0" speed="6.51" length="9.03" shape="13.60,308.00 11.15,308.35 9.40,309.40 8.35,311.15 8.00,313.60"/>
    </edge>
    <edge id=":A3_7" function="internal">
        <lane id=":A3_7_0" index="0" speed="11.36" length="29.67" shape="13.60,304.80 5.55,303.65 -0.20,300.20 -3.65,294.45 -4.80,286.40"/>
        <lane id=":A3_7_1" index="1" speed="10.36" length="24.51" shape="13.60,301.60 6.95,300.65 2.20,297.80 -0.65,293.05 -1.60,286.40"/>
    </edge>
    <edge id=":A3_9" function="internal">
        <lane id=":A3_9_0" index="0" speed="3.65" length="4.67" shape="13.60,301.60 12.40,300.80 12.00,300.00 12.40,299.20 13.60,298.40"/>
    </edge>
    <edge id=":A3_10" function="internal">
        <lane id=":A3_10_0" index="0" speed="6.51" length="9.03" shape="8.00,286.40 8.35,288.85 9.40,290.60 11.15,291.65 13.60,292.00"/>
    </edge>
    <edge id=":A3_11" function="internal">
        <lane id=":A3_11_0" index="0" speed="13.89" length="27.20" shape="8.00,286.40 8.00,313.60"/>
        <lane id=":A3_11_1" index="1" speed="13.89" length="27.20" shape="4.80,286.40 4.80,313.60"/>
        <lane id=":A3_11_2" index="2" speed="13.89" length="27.20" shape="1.60,286.40 1.60,313.60"/>
    </edge>
    <edge id=":A3_14" function="internal">
        <lane id=":A3_14_0" index="0" speed="3.65" length="1.44" shape="1.60,286.40 0.80,287.60"/>
    </edge>
    <edge id=":A3_18" function="internal">
        <lane id=":A3_18_0" index="0" speed="3.65" length="3.23" shape="0.80,287.60 0.00,288.00 -0.80,287.60 -1.60,286.40"/>
    </edge>
    <edge id=":A4_0" function="internal">
        <lane id=":A4_0_0" index="0" speed="11.12" length="28.38" shape="9.60,408.00 1.90,406.90 -3.60,403.60 -6.90,398.10 -8.00,390.40"/>
        <lane id=":A4_0_1" index="1" speed="10.10" length="23.22" shape="9.60,404.80 3.30,403.90 -1.20,401.20 -3.90,396.70 -4.80,390.40"/>
        <lane id=":A4_0_2" index="2" speed="8.96" length="18.06" shape="9.60,401.60 4.70,400.90 1.20,398.80 -0.90,395.30 -1.60,390.40"/>
    </edge>
    <edge id=":A4_3" function="internal">
        <lane id=":A4_3_0" index="0" speed="3.90" length="2.58" shape="8.00,390.40 8.10,391.10 8.40,391.60 8.90,391.90 9.60,392.00"/>
        <lane id=":A4_3_1" index="1" speed="6.08" length="7.74" shape="4.80,390.40 5.10,392.50 6.00,394.00 7.50,394.90 9.60,395.20"/>
        <lane id=":A4_3_2" index="2" speed="7.66" length="12.90" shape="1.60,390.40 2.10,393.90 3.60,396.40 6.10,397.90 9.60,398.40"/>
    </edge>
    <edge id=":B0_0" function="internal">
        <lane id=":B0_0_0" index="0" speed="6.51" length="9.03" shape="92.00,13.60 91.65,11.15 90.60,9.40 88.85,8.35 86.40,8.00"/>
    </edge>
    <edge id=":B0_1" function="internal">
        <lane id=":B0_1_0" index="0" speed="11.36" length="29.67" shape="95.20,13.60 96.35,5.55 99.80,-0.20 105.55,-3.65 113.60,-4.80"/>
        <lane id=":B0_1_1" index="1" speed="10.36" length="24.51" shape="98.40,13.60 99.35,6.95 102.20,2.20 106.95,-0.65 113.60,-1.60"/>
    </edge>
    <edge id=":B0_3" function="internal">
        <lane id=":B0_3_0" index="0" speed="3.65" length="4.67" shape="98.40,13.60 99.20,12.40 100.00,12.00 100.80,12.40 101.60,13.60"/>
    </edge>
    <edge id=":B0_4" function="internal">
        <lane id=":B0_4_0" index="0" speed="6.51" length="9.03" shape="113.60,8.00 111.15,8.35 109.40,9.40 108.35,11.15 108.00,13.60"/>
    </edge>
    <edge id=":B0_5" function="internal">
        <lane id=":B0_5_0" index="0" speed="13.89" length="27.20" shape="113.60,8.00 86.40,8.00"/>
        <lane id=":B0_5_1" index="1" speed="13.89" length="27.20" shape="113.60,4.80 86.40,4.80"/>
        <lane id=":B0_5_2" index="2" speed="13.89" length="27.20" shape="113.60,1.60 86.40,1.60"/>
    </edge>
    <edge id=":B0_8" function="internal">
        <lane id=":B0_8_0" index="0" speed="3.65" length="1.44" shape="113.60,1.60 112.40,0.80"/>
    </edge>
    <edge id=":B0_15" function="internal">
        <lane id=":B0_15_0" index="0" speed="3.65" length="3.23" shape="112.40,0.80 112.00,0.00 112.40,-0.80 113.60,-1.60"/>
    </edge>
    <edge id=":B0_9" function="internal">
        <lane id=":B0_9_0" index="0" speed="13.89" length="27.20" shape="86.40,-8.00 113.60,-8.00"/>
        <lane id=":B0_9_1" index="1" speed="13.89" length="27.20" shape="86.40,-4.80 113.60,-4.80"/>
        <lane id=":B0_9_2" index="2" speed="13.89" length="27.20" shape="86.40,-1.60 113.60,-1.60"/>
    </edge>
    <edge id=":B0_12" function="internal">
        <lane id=":B0_12_0" index="0" speed="10.88" length="6.03" shape="86.40,-1.60 92.38,-0.89"/>
        <lane id=":B0_12_1" index="1" speed="10.36" length="5.01" shape="86.40,-1.60 91.36,-0.89"/>
    </edge>
    <edge id=":B0_14" function="internal">
        <lane id=":B0_14_0" index="0" speed="3.65" length="1.44" shape="86.40,-1.60 87.60,-0.80"/>
    </edge>
    <edge id=":B0_16" function="internal">
        <lane id=":B0_16_0" index="0" speed="10.88" length="21.12" shape="92.38,-0.89 94.45,-0.65 100.20,2.20 103.65,6.95 104.80,13.60"/>
    </edge>
    <edge id=":B0_17" function="internal">
        <lane id=":B0_17_0" index="0" speed="10.36" length="19.50" shape="91.36,-0.89 93.05,-0.65 97.80,2.20 100.65,6.95 101.60,13.60"/>
    </edge>
    <edge id=":B0_18" function="internal">
        <lane id=":B0_18_0" index="0" speed="3.65" length="3.23" shape="87.60,-0.80 88.00,0.00 87.60,0.80 86.40,1.60"/>
    </edge>
    <edge id=":B1_0" function="internal">
        <lane id=":B1_0_0" index="0" speed="6.51" length="9.03" shape="92.00,113.60 91.65,111.15 90.60,109.40 88.85,108.35 86.40,108.00"/>
    </edge>
    <edge id=":B1_1" function="internal">
        <lane id=":B1_1_0" index="0" speed="13.89" length="27.20" shape="92.00,113.60 92.00,86.40"/>
        <lane id=":B1_1_1" index="1" speed="13.89" length="27.20" shape="95.20,113.60 95.20,86.40"/>
        <lane id=":B1_1_2" index="2" speed="13.89" length="27.20" shape="98.40,113.60 98.40,86.40"/>
    </edge>
    <edge id=":B1_4" function="internal">
        <lane id=":B1_4_0" index="0" speed="10.36" length="5.01" shape="98.40,113.60 99.11,108.64"/>
    </edge>
    <edge id=":B1_5" function="internal">
        <lane id=":B1_5_0" index="0" speed="3.65" length="1.44" shape="98.40,113.60 99.20,112.40"/>
    </edge>
    <edge id=":B1_24" function="internal">
        <lane id=":B1_24_0" index="0" speed="10.36" length="19.50" shape="99.11,108.64 99.35,106.95 102.20,102.20 106.95,99.35 113.60,98.40"/>
    </edge>
    <edge id=":B1_25" function="internal">
        <lane id=":B1_25_0" index="0" speed="3.65" length="3.23" shape="99.20,112.40 100.00,112.00 100.80,112.40 101.60,113.60"/>
    </edge>
    <edge id=":B1_6" function="internal">
        <lane id=":B1_6_0" index="0" speed="6.51" length="9.03" shape="113.60,108.00 111.15,108.35 109.40,109.40 108.35,111.15 108.00,113.60"/>
    </edge>
    <edge id=":B1_7" function="internal">
        <lane id=":B1_7_0" index="0" speed="13.89" length="27.20" shape="113.60,108.00 86.40,108.00"/>
        <lane id=":B1_7_1" index="1" speed="13.89" length="27.20" shape="113.60,104.80 86.40,104.80"/>
        <lane id=":B1_7_2" index="2" speed="13.89" length="27.20" shape="113.60,101.60 86.40,101.60"/>
    </edge>
    <edge id=":B1_10" function="internal">
        <lane id=":B1_10_0" index="0" speed="10.36" length="5.01" shape="113.60,101.60 108.64,100.89"/>
    </edge>
    <edge id=":B1_11" function="internal">
        <lane id=":B1_11_0" index="0" speed="3.65" length="1.44" shape="113.60,101.60 112.40,100.80"/>
    </edge>
    <edge id=":B1_26" function="internal">
        <lane id=":B1_26_0" index="0" speed="10.36" length="19.50" shape="108.64,100.89 106.95,100.65 102.20,97.80 99.35,93.05 98.40,86.40"/>
    </edge>
    <edge id=":B1_27" function="internal">
        <lane id=":B1_27_0" index="0" speed="3.65" length="3.23" shape="112.40,100.80 112.00,100.00 112.40,99.20 113.60,98.40"/>
    </edge>
    <edge id=":B1_12" function="internal">
        <lane id=":B1_12_0" index="0" speed="6.51" length="9.03" shape="108.00,86.40 108.35,88.85 109.40,90.60 111.15,91.65 113.60,92.00"/>
    </edge>
    <edge id=":B1_13" function="internal">
        <lane id=":B1_13_0" index="0" speed="13.89" length="27.20" shape="108.00,86.40 108.00,113.60"/>
        <lane id=":B1_13_1" index="1" speed="13.89" length="27.20" shape="104.80,86.40 104.80,113.60"/>
        <lane id=":B1_13_2" index="2" speed="13.89" length="27.20" shape="101.60,86.40 101.60,113.60"/>
    </edge>
    <edge id=":B1_16" function="internal">
        <lane id=":B1_16_0" index="0" speed="10.36" length="5.01" shape="101.60,86.40 100.89,91.36"/>
    </edge>
    <edge id=":B1_17" function="internal">
        <lane id=":B1_17_0" index="0" speed="3.65" length="1.44" shape="101.60,86.40 100.80,87.60"/>
    </edge>
    <edge id=":B1_28" function="internal">
        <lane id=":B1_28_0" index="0" speed="10.36" length="19.50" shape="100.89,91.36 100.65,93.05 97.80,97.80 93.05,100.65 86.40,101.60"/>
    </edge>
    <edge id=":B1_29" function="internal">
        <lane id=":B1_29_0" index="0" speed="3.65" length="3.23" shape="100.80,87.60 100.00,88.00 99.20,87.60 98.40,86.40"/>
    </edge>
    <edge id=":B1_18" function="internal">
        <lane id=":B1_18_0" index="0" speed="6.51" length="9.03" shape="86.40,92.00 88.85,91.65 90.60,90.60 91.65,88.85 92.00,86.40"/>
    </edge>
    <edge id=":B1_19" function="internal">
        <lane id=":B1_19_0" index="0" speed="13.89" length="27.20" shape="86.40,92.00 113.60,92.00"/>
        <lane id=":B1_19_1" index="1" speed="13.89" length="27.20" shape="86.40,95.20 113.60,95.20"/>
        <lane id=":B1_19_2" index="2" speed="13.89" length="27.20" shape="86.40,98.40 113.60,98.40"/>
    </edge>
    <edge id=":B1_22" function="internal">
        <lane id=":B1_22_0" index="0" speed="10.36" length="5.01" shape="86.40,98.40 91.36,99.11"/>
    </edge>
    <edge id=":B1_23" function="internal">
        <lane id=":B1_23_0" index="0" speed="3.65" length="1.44" shape="86.40,98.40 87.60,99.20"/>
    </edge>
    <edge id=":B1_30" function="internal">
        <lane id=":B1_30_0" index="0" speed="10.36" length="19.50" shape="91.36,99.11 93.05,99.35 97.80,102.20 100.65,106.95 101.60,113.60"/>
    </edge>
    <edge id=":B1_31" function="internal">
        <lane id=":B1_31_0" index="0" speed="3.65" length="3.23" shape="87.60,99.20 88.00,100.00 87.60,100.80 86.40,101.60"/>
    </edge>
    <edge id=":B2_0" function="internal">
        <lane id=":B2_0_0" index="0" speed="6.51" length="9.03" shape="92.00,213.60 91.65,211.15 90.60,209.40 88.85,208.35 86.40,208.00"/>
    </edge>
    <edge id=":B2_1" function="internal">
        <lane id=":B2_1_0" index="0" speed="13.89" length="27.20" shape="92.00,213.60 92.00,186.40"/>
        <lane id=":B2_1_1" index="1" speed="13.89" length="27.20" shape="95.20,213.60 95.20,186.40"/>
        <lane id=":B2_1_2" index="2" speed="13.89" length="27.20" shape="98.40,213.60 98.40,186.40"/>
    </edge>
    <edge id=":B2_4" function="internal">
        <lane id=":B2_4_0" index="0" speed="10.36" length="5.01" shape="98.40,213.60 99.11,208.64"/>
    </edge>
    <edge id=":B2_5" function="internal">
        <lane id=":B2_5_0" index="0" speed="3.65" length="1.44" shape="98.40,213.60 99.20,212.40"/>
    </edge>
    <edge id=":B2_24" function="internal">
        <lane id=":B2_24_0" index="0" speed="10.36" length="19.50" shape="99.11,208.64 99.35,206.95 102.20,202.20 106.95,199.35 113.60,198.40"/>
    </edge>
    <edge id=":B2_25" function="internal">
        <lane id=":B2_25_0" index="0" speed="3.65" length="3.23" shape="99.20,212.40 100.00,212.00 100.80,212.40 101.60,213.60"/>
    </edge>
    <edge id=":B2_6" function="internal">
        <lane id=":B2_6_0" index="0" speed="6.51" length="9.03" shape="113.60,208.00 111.15,208.35 109.40,209.40 108.35,211.15 108.00,213.60"/>
    </edge>
    <edge id=":B2_7" function="internal">
        <lane id=":B2_7_0" index="0" speed="13.89" length="27.20" shape="113.60,208.00 86.40,208.00"/>
        <lane id=":B2_7_1" index="1" speed="13.89" length="27.20" shape="113.60,204.80 86.40,204.80"/>
        <lane id=":B2_7_2" index="2" speed="13.89" length="27.20" shape="113.60,201.60 86.40,201.60"/>
    </edge>
    <edge id=":B2_10" function="internal">
        <lane id=":B2_10_0" index="0" speed="10.36" length="24.51" shape="113.60,201.60 106.95,200.65 102.20,197.80 99.35,193.05 98.40,186.40"/>
    </edge>
    <edge id=":B2_11" function="internal">
        <lane id=":B2_11_0" index="0" speed="3.65" length="4.67" shape="113.60,201.60 112.40,200.80 112.00,200.00 112.40,199.20 113.60,198.40"/>
    </edge>
    <edge id=":B2_12" function="internal">
        <lane id=":B2_12_0" index="0" speed="6.51" length="9.03" shape="108.00,186.40 108.35,188.85 109.40,190.60 111.15,191.65 113.60,192.00"/>
    </edge>
    <edge id=":B2_13" function="internal">
        <lane id=":B2_13_0" index="0" speed="13.89" length="27.20" shape="108.00,186.40 108.00,213.60"/>
        <lane id=":B2_13_1" index="1" speed="13.89" length="27.20" shape="104.80,186.40 104.80,213.60"/>
        <lane id=":B2_13_2" index="2" speed="13.89" length="27.20" shape="101.60,186.40 101.60,213.60"/>
    </edge>
    <edge id=":B2_16" function="internal">
        <lane id=":B2_16_0" index="0" speed="10.36" length="5.01" shape="101.60,186.40 100.89,191.36"/>
    </edge>
    <edge id=":B2_17" function="internal">
        <lane id=":B2_17_0" index="0" speed="3.65" length="1.44" shape="101.60,186.40 100.80,187.60"/>
    </edge>
    <edge id=":B2_26" function="internal">
        <lane id=":B2_26_0" index="0" speed="10.36" length="19.50" shape="100.89,191.36 100.65,193.05 97.80,197.80 93.05,200.65 86.40,201.60"/>
    </edge>
    <edge id=":B2_27" function="internal">
        <lane id=":B2_27_0" index="0" speed="3.65" length="3.23" shape="100.80,187.60 100.00,188.00 99.20,187.60 98.40,186.40"/>
    </edge>
    <edge id=":B2_18" function="internal">
        <lane id=":B2_18_0" index="0" speed="6.51" length="9.03" shape="86.40,192.00 88.85,191.65 90.60,190.60 91.65,188.85 92.00,186.40"/>
    </edge>
    <edge id=":B2_19" function="internal">
        <lane id=":B2_19_0" index="0" speed="13.89" length="27.20" shape="86.40,192.00 113.60,192.00"/>
        <lane id=":B2_19_1" index="1" speed="13.89" length="27.20" shape="86.40,195.20 113.60,195.20"/>
        <lane id=":B2_19_2" index="2" speed="13.89" length="27.20" shape="86.40,198.40 113.60,198.40"/>
    </edge>
    <edge id=":B2_22" function="internal">
        <lane id=":B2_22_0" index="0" speed="10.36" length="24.51" shape="86.40,198.40 93.05,199.35 97.80,202.20 100.65,206.95 101.60,213.60"/>
    </edge>
    <edge id=":B2_23" function="internal">
        <lane id=":B2_23_0" index="0" speed="3.65" length="4.67" shape="86.40,198.40 87.60,199.20 88.00,200.00 87.60,200.80 86.40,201.60"/>
    </edge>
    <edge id=":B3_0" function="internal">
        <lane id=":B3_0_0" index="0" speed="6.51" length="9.03" shape="92.00,313.60 91.65,311.15 90.60,309.40 88.85,308.35 86.40,308.00"/>
    </edge>
    <edge id=":B3_1" function="internal">
        <lane id=":B3_1_0" index="0" speed="13.89" length="27.20" shape="92.00,313.60 92.00,286.40"/>
        <lane id=":B3_1_1" index="1" speed="13.89" length="27.20" shape="95.20,313.60 95.20,286.40"/>
        <lane id=":B3_1_2" index="2" speed="13.89" length="27.20" shape="98.40,313.60 98.40,286.40"/>
    </edge>
    <edge id=":B3_4" function="internal">
        <lane id=":B3_4_0" index="0" speed="10.36" length="5.01" shape="98.40,313.60 99.11,308.64"/>
    </edge>
    <edge id=":B3_5" function="internal">
        <lane id=":B3_5_0" index="0" speed="3.65" length="1.44" shape="98.40,313.60 99.20,312.40"/>
    </edge>
    <edge id=":B3_24" function="internal">
        <lane id=":B3_24_0" index="0" speed="10.36" length="19.50" shape="99.11,308.64 99.35,306.95 102.20,302.20 106.95,299.35 113.60,298.40"/>
    </edge>
    <edge id=":B3_25" function="internal">
        <lane id=":B3_25_0" index="0" speed="3.65" length="3.23" shape="99.20,312.40 100.00,312.00 100.80,312.40 101.60,313.60"/>
    </edge>
    <edge id=":B3_6" function="internal">
        <lane id=":B3_6_0" index="0" speed="6.51" length="9.03" shape="113.60,308.00 111.15,308.35 109.40,309.40 108.35,311.15 108.00,313.60"/>
    </edge>
    <edge id=":B3_7" function="internal">
        <lane id=":B3_7_0" index="0" speed="13.89" length="27.20" shape="113.60,308.00 86.40,308.00"/>
        <lane id=":B3_7_1" index="1" speed="13.89" length="27.20" shape="113.60,304.80 86.40,304.80"/>
        <lane id=":B3_7_2" index="2" speed="13.89" length="27.20" shape="113.60,301.60 86.40,301.60"/>
    </edge>
    <edge id=":B3_10" function="internal">
        <lane id=":B3_10_0" index="0" speed="10.36" length="5.01" shape="113.60,301.60 108.64,300.89"/>
    </edge>
    <edge id=":B3_11" function="internal">
        <lane id=":B3_11_0" index="0" speed="3.65" length="1.44" shape="113.60,301.60 112.40,300.80"/>
    </edge>
    <edge id=":B3_26" function="internal">
        <lane id=":B3_26_0" index="0" speed="10.36" length="19.50" shape="108.64,300.89 106.95,300.65 102.20,297.80 99.35,293.05 98.40,286.40"/>
    </edge>
    <edge id=":B3_27" function="internal">
        <lane id=":B3_27_0" index="0" speed="3.65" length="3.23" shape="112.40,300.80 112.00,300.00 112.40,299.20 113.60,298.40"/>
    </edge>
    <edge id=":B3_12" function="internal">
        <lane id=":B3_12_0" index="0" speed="6.51" length="9.03" shape="108.00,286.40 108.35,288.85 109.40,290.60 111.15,291.65 113.60,292.00"/>
    </edge>
    <edge id=":B3_13" function="internal">
        <lane id=":B3_13_0" index="0" speed="13.89" length="27.20" shape="108.00,286.40 108.00,313.60"/>
        <lane id=":B3_13_1" index="1" speed="13.89" length="27.20" shape="104.80,286.40 104.80,313.60"/>
        <lane id=":B3_13_2" index="2" speed="13.89" length="27.20" shape="101.60,286.40 101.60,313.60"/>
    </edge>
    <edge id=":B3_16" function="internal">
        <lane id=":B3_16_0" index="0" speed="10.36" length="5.01" shape="101.60,286.40 100.89,291.36"/>
    </edge>
    <edge id=":B3_17" function="internal">
        <lane id=":B3_17_0" index="0" speed="3.65" length="1.44" shape="101.60,286.40 100.80,287.60"/>
    </edge>
    <edge id=":B3_28" function="internal">
        <lane id=":B3_28_0" index="0" speed="10.36" length="19.50" shape="100.89,291.36 100.65,293.05 97.80,297.80 93.05,300.65 86.40,301.60"/>
    </edge>
    <edge id=":B3_29" function="internal">
        <lane id=":B3_29_0" index="0" speed="3.65" length="3.23" shape="100.80,287.60 100.00,288.00 99.20,287.60 98.40,286.40"/>
    </edge>
    <edge id=":B3_18" function="internal">
        <lane id=":B3_18_0" index="0" speed="6.51" length="9.03" shape="86.40,292.00 88.85,291.65 90.60,290.60 91.65,288.85 92.00,286.40"/>
    </edge>
    <edge id=":B3_19" function="internal">
        <lane id=":B3_19_0" index="0" speed="13.89" length="27.20" shape="86.40,292.00 113.60,292.00"/>
        <lane id=":B3_19_1" index="1" speed="13.89" length="27.20" shape="86.40,295.20 113.60,295.20"/>
        <lane id=":B3_19_2" index="2" speed="13.89" length="27.20" shape="86.40,298.40 113.60,298.40"/>
    </edge>
    <edge id=":B3_22" function="internal">
        <lane id=":B3_22_0" index="0" speed="10.36" length="5.01" shape="86.40,298.40 91.36,299.11"/>
    </edge>
    <edge id=":B3_23" function="internal">
        <lane id=":B3_23_0" index="0" speed="3.65" length="1.44" shape="86.40,298.40 87.60,299.20"/>
    </edge>
    <edge id=":B3_30" function="internal">
        <lane id=":B3_30_0" index="0" speed="10.36" length="19.50" shape="91.36,299.11 93.05,299.35 97.80,302.20 100.65,306.95 101.60,313.60"/>
    </edge>
    <edge id=":B3_31" function="internal">
        <lane id=":B3_31_0" index="0" speed="3.65" length="3.23" shape="87.60,299.20 88.00,300.00 87.60,300.80 86.40,301.60"/>
    </edge>
    <edge id=":B4_0" function="internal">
        <lane id=":B4_0_0" index="0" speed="13.89" length="27.20" shape="113.60,408.00 86.40,408.00"/>
        <lane id=":B4_0_1" index="1" speed="13.89" length="27.20" shape="113.60,404.80 86.40,404.80"/>
        <lane id=":B4_0_2" index="2" speed="13.89" length="27.20" shape="113.60,401.60 86.40,401.60"/>
    </edge>
    <edge id=":B4_3" function="internal">
        <lane id=":B4_3_0" index="0" speed="10.88" length="6.03" shape="113.60,401.60 107.62,400.89"/>