<routes>
	<vType id="vtypeauto" accel="2.5" decel="8" sigma="0" length="4"
		minGap="4" maxSpeed="36" color="255,255,255" probability="1"
		carFollowModel="CC" tauEngine="0.5" omegaN="0.2" xi="1" c1="0.5"
		lanesCount="4" ccAccel="4" ploegKp="0.2" ploegKd="0.7"
		ploegH="0.5" lcAssertive="0.9"/>

	<route id="route_0" edges="B4B3 B3B2 B2C2 C2C3 C3B3 B3A3"/>
	<route id="route_1" edges="A3B3 B3C3 C3D3 D3E3"/>
	<route id="route_2" edges="A0A1 A1B1 B1B2 B2C2 C2C3 C3D3"/>
	<route id="route_3" edges="C0C1 C1B1 B1B2 B2C2 C2C1 C1D1 D1D2 D2E2 E2E3 E3D3 D3D4 D4E4"/>
	<route id="route_4" edges="C0C1 C1C2 C2C3 C3C4"/>
	<route id="route_5" edges="E2D2 D2D1 D1C1 C1C2 C2B2 B2B1 B1A1"/>
	<route id="route_6" edges="D4D3 D3D2 D2D1 D1D0"/>

	<flow id="flow0" begin="0" end="3600" period="1" type="vtypeauto" route="route_0"> </flow>
	<flow id="flow1" begin="0" end="3600" period="1" type="vtypeauto" route="route_1"> </flow>
	<flow id="flow2" begin="0" end="3600" period="1" type="vtypeauto" route="route_2"> </flow>
	<flow id="flow3" begin="0" end="3600" period="1" type="vtypeauto" route="route_3"> </flow>
	<flow id="flow4" begin="0" end="3600" period="1" type="vtypeauto" route="route_4"> </flow>
	<flow id="flow5" begin="0" end="3600" period="1" type="vtypeauto" route="route_5"> </flow>
	<flow id="flow6" begin="0" end="3600" period="1" type="vtypeauto" route="route_6"> </flow>
</routes>